<routes>
    <route id="route1" edges="27287058 55900237 55900242"/>
    <vehicle id="vehicle_01" route="route1" depart="0"/>
    <vehicle id="vehicle_02" route="route1" depart="1"/>
</routes>