<flows>
        <interval begin="0" end="3599">
                <flow arrivalLane="random" departLane="random" from="122900688" to="122900739" number="0" id="122900688to122900739"/>
        </interval>
        <interval begin="0" end="3599">
                <flow arrivalLane="random" departLane="random" from="122900688" to="13255021" number="0" id="122900688to13255021"/>
        </interval>
        <interval begin="0" end="3599">
                <flow arrivalLane="random" departLane="random" from="122900688" to="13259875" number="0" id="122900688to13259875"/>
        </interval>
        <interval begin="0" end="3599">
                <flow arrivalLane="random" departLane="random" from="122900688" to="13263312" number="314" id="122900688to13263312"/>
        </interval>
        <interval begin="0" end="3599">
                <flow arrivalLane="random" departLane="random" from="122900688" to="13264765" number="0" id="122900688to13264765"/>
        </interval>
        <interval begin="0" end="3599">
                <flow arrivalLane="random" departLane="random" from="122900688" to="13272361.52.53" number="385" id="122900688to13272361.52.53"/>
        </interval>
        <interval begin="0" end="3599">
                <flow arrivalLane="random" departLane="random" from="122900688" to="159669970" number="0" id="122900688to159669970"/>
        </interval>
        <interval begin="0" end="3599">
                <flow arrivalLane="random" departLane="random" from="122900688" to="186220976" number="418" id="122900688to186220976"/>
        </interval>
        <interval begin="0" end="3599">
                <flow arrivalLane="random" departLane="random" from="122900688" to="186220992" number="0" id="122900688to186220992"/>
        </interval>
        <interval begin="0" end="3599">
                <flow arrivalLane="random" departLane="random" from="122900688" to="186221005.58" number="343" id="122900688to186221005.58"/>
        </interval>
        <interval begin="0" end="3599">
                <flow arrivalLane="random" departLane="random" from="122900688" to="186221008" number="0" id="122900688to186221008"/>
        </interval>
        <interval begin="0" end="3599">
                <flow arrivalLane="random" departLane="random" from="122900688" to="24794684" number="0" id="122900688to24794684"/>
        </interval>
        <interval begin="0" end="3599">
                <flow arrivalLane="random" departLane="random" from="122900688" to="27287177" number="0" id="122900688to27287177"/>
        </interval>
        <interval begin="0" end="3599">
                <flow arrivalLane="random" departLane="random" from="122900688" to="31353399" number="275" id="122900688to31353399"/>
        </interval>
        <interval begin="0" end="3599">
                <flow arrivalLane="random" departLane="random" from="122900688" to="398018202" number="289" id="122900688to398018202"/>
        </interval>
        <interval begin="0" end="3599">
                <flow arrivalLane="random" departLane="random" from="122900688" to="398048180" number="0" id="122900688to398048180"/>
        </interval>
        <interval begin="0" end="3599">
                <flow arrivalLane="random" departLane="random" from="122900688" to="399309299" number="314" id="122900688to399309299"/>
        </interval>
        <interval begin="0" end="3599">
                <flow arrivalLane="random" departLane="random" from="122900688" to="405193624" number="0" id="122900688to405193624"/>
        </interval>
        <interval begin="0" end="3599">
                <flow arrivalLane="random" departLane="random" from="122900688" to="405317537" number="0" id="122900688to405317537"/>
        </interval>
        <interval begin="0" end="3599">
                <flow arrivalLane="random" departLane="random" from="122900688" to="4183708" number="0" id="122900688to4183708"/>
        </interval>
        <interval begin="0" end="3599">
                <flow arrivalLane="random" departLane="random" from="122900688" to="521161661" number="0" id="122900688to521161661"/>
        </interval>
        <interval begin="0" end="3599">
                <flow arrivalLane="random" departLane="random" from="122900688" to="55900238" number="0" id="122900688to55900238"/>
        </interval>
        <interval begin="0" end="3599">
                <flow arrivalLane="random" departLane="random" from="122900688" to="55904294" number="0" id="122900688to55904294"/>
        </interval>
        <interval begin="0" end="3599">
                <flow arrivalLane="random" departLane="random" from="122900688" to="860961742" number="286" id="122900688to860961742"/>
        </interval>
        <interval begin="0" end="3599">
                <flow arrivalLane="random" departLane="random" from="122900688" to="9599662" number="0" id="122900688to9599662"/>
        </interval>
        <interval begin="0" end="3599">
                <flow arrivalLane="random" departLane="random" from="122900688" to="9599697.51" number="384" id="122900688to9599697.51"/>
        </interval>
        <interval begin="0" end="3599">
                <flow arrivalLane="random" departLane="random" from="129048306" to="122900739" number="0" id="129048306to122900739"/>
        </interval>
        <interval begin="0" end="3599">
                <flow arrivalLane="random" departLane="random" from="129048306" to="13255021" number="0" id="129048306to13255021"/>
        </interval>
        <interval begin="0" end="3599">
                <flow arrivalLane="random" departLane="random" from="129048306" to="13259875" number="0" id="129048306to13259875"/>
        </interval>
        <interval begin="0" end="3599">
                <flow arrivalLane="random" departLane="random" from="129048306" to="13263312" number="0" id="129048306to13263312"/>
        </interval>
        <interval begin="0" end="3599">
                <flow arrivalLane="random" departLane="random" from="129048306" to="13264765" number="0" id="129048306to13264765"/>
        </interval>
        <interval begin="0" end="3599">
                <flow arrivalLane="random" departLane="random" from="129048306" to="13272361.52.53" number="237" id="129048306to13272361.52.53"/>
        </interval>
        <interval begin="0" end="3599">
                <flow arrivalLane="random" departLane="random" from="129048306" to="159669970" number="0" id="129048306to159669970"/>
        </interval>
        <interval begin="0" end="3599">
                <flow arrivalLane="random" departLane="random" from="129048306" to="186220976" number="266" id="129048306to186220976"/>
        </interval>
        <interval begin="0" end="3599">
                <flow arrivalLane="random" departLane="random" from="129048306" to="186220992" number="0" id="129048306to186220992"/>
        </interval>
        <interval begin="0" end="3599">
                <flow arrivalLane="random" departLane="random" from="129048306" to="186221005.58" number="399" id="129048306to186221005.58"/>
        </interval>
        <interval begin="0" end="3599">
                <flow arrivalLane="random" departLane="random" from="129048306" to="186221008" number="0" id="129048306to186221008"/>
        </interval>
        <interval begin="0" end="3599">
                <flow arrivalLane="random" departLane="random" from="129048306" to="24794684" number="0" id="129048306to24794684"/>
        </interval>
        <interval begin="0" end="3599">
                <flow arrivalLane="random" departLane="random" from="129048306" to="27287177" number="0" id="129048306to27287177"/>
        </interval>
        <interval begin="0" end="3599">
                <flow arrivalLane="random" departLane="random" from="129048306" to="31353399" number="292" id="129048306to31353399"/>
        </interval>
        <interval begin="0" end="3599">
                <flow arrivalLane="random" departLane="random" from="129048306" to="398018202" number="179" id="129048306to398018202"/>
        </interval>
        <interval begin="0" end="3599">
                <flow arrivalLane="random" departLane="random" from="129048306" to="398048180" number="0" id="129048306to398048180"/>
        </interval>
        <interval begin="0" end="3599">
                <flow arrivalLane="random" departLane="random" from="129048306" to="399309299" number="0" id="129048306to399309299"/>
        </interval>
        <interval begin="0" end="3599">
                <flow arrivalLane="random" departLane="random" from="129048306" to="405193624" number="0" id="129048306to405193624"/>
        </interval>
        <interval begin="0" end="3599">
                <flow arrivalLane="random" departLane="random" from="129048306" to="405317537" number="0" id="129048306to405317537"/>
        </interval>
        <interval begin="0" end="3599">
                <flow arrivalLane="random" departLane="random" from="129048306" to="4183708" number="0" id="129048306to4183708"/>
        </interval>
        <interval begin="0" end="3599">
                <flow arrivalLane="random" departLane="random" from="129048306" to="521161661" number="0" id="129048306to521161661"/>
        </interval>
        <interval begin="0" end="3599">
                <flow arrivalLane="random" departLane="random" from="129048306" to="55900238" number="0" id="129048306to55900238"/>
        </interval>
        <interval begin="0" end="3599">
                <flow arrivalLane="random" departLane="random" from="129048306" to="55904294" number="0" id="129048306to55904294"/>
        </interval>
        <interval begin="0" end="3599">
                <flow arrivalLane="random" departLane="random" from="129048306" to="860961742" number="260" id="129048306to860961742"/>
        </interval>
        <interval begin="0" end="3599">
                <flow arrivalLane="random" departLane="random" from="129048306" to="9599662" number="0" id="129048306to9599662"/>
        </interval>
        <interval begin="0" end="3599">
                <flow arrivalLane="random" departLane="random" from="129048306" to="9599697.51" number="0" id="129048306to9599697.51"/>
        </interval>
        <interval begin="0" end="3599">
                <flow arrivalLane="random" departLane="random" from="13277214#0" to="122900739" number="0" id="13277214#0to122900739"/>
        </interval>
        <interval begin="0" end="3599">
                <flow arrivalLane="random" departLane="random" from="13277214#0" to="13255021" number="0" id="13277214#0to13255021"/>
        </interval>
        <interval begin="0" end="3599">
                <flow arrivalLane="random" departLane="random" from="13277214#0" to="13259875" number="0" id="13277214#0to13259875"/>
        </interval>
        <interval begin="0" end="3599">
                <flow arrivalLane="random" departLane="random" from="13277214#0" to="13263312" number="0" id="13277214#0to13263312"/>
        </interval>
        <interval begin="0" end="3599">
                <flow arrivalLane="random" departLane="random" from="13277214#0" to="13264765" number="170" id="13277214#0to13264765"/>
        </interval>
        <interval begin="0" end="3599">
                <flow arrivalLane="random" departLane="random" from="13277214#0" to="13272361.52.53" number="0" id="13277214#0to13272361.52.53"/>
        </interval>
        <interval begin="0" end="3599">
                <flow arrivalLane="random" departLane="random" from="13277214#0" to="159669970" number="0" id="13277214#0to159669970"/>
        </interval>
        <interval begin="0" end="3599">
                <flow arrivalLane="random" departLane="random" from="13277214#0" to="186220976" number="0" id="13277214#0to186220976"/>
        </interval>
        <interval begin="0" end="3599">
                <flow arrivalLane="random" departLane="random" from="13277214#0" to="186220992" number="0" id="13277214#0to186220992"/>
        </interval>
        <interval begin="0" end="3599">
                <flow arrivalLane="random" departLane="random" from="13277214#0" to="186221005.58" number="0" id="13277214#0to186221005.58"/>
        </interval>
        <interval begin="0" end="3599">
                <flow arrivalLane="random" departLane="random" from="13277214#0" to="186221008" number="0" id="13277214#0to186221008"/>
        </interval>
        <interval begin="0" end="3599">
                <flow arrivalLane="random" departLane="random" from="13277214#0" to="24794684" number="0" id="13277214#0to24794684"/>
        </interval>
        <interval begin="0" end="3599">
                <flow arrivalLane="random" departLane="random" from="13277214#0" to="27287177" number="0" id="13277214#0to27287177"/>
        </interval>
        <interval begin="0" end="3599">
                <flow arrivalLane="random" departLane="random" from="13277214#0" to="31353399" number="0" id="13277214#0to31353399"/>
        </interval>
        <interval begin="0" end="3599">
                <flow arrivalLane="random" departLane="random" from="13277214#0" to="398018202" number="0" id="13277214#0to398018202"/>
        </interval>
        <interval begin="0" end="3599">
                <flow arrivalLane="random" departLane="random" from="13277214#0" to="398048180" number="0" id="13277214#0to398048180"/>
        </interval>
        <interval begin="0" end="3599">
                <flow arrivalLane="random" departLane="random" from="13277214#0" to="399309299" number="0" id="13277214#0to399309299"/>
        </interval>
        <interval begin="0" end="3599">
                <flow arrivalLane="random" departLane="random" from="13277214#0" to="405193624" number="0" id="13277214#0to405193624"/>
        </interval>
        <interval begin="0" end="3599">
                <flow arrivalLane="random" departLane="random" from="13277214#0" to="405317537" number="396" id="13277214#0to405317537"/>
        </interval>
        <interval begin="0" end="3599">
                <flow arrivalLane="random" departLane="random" from="13277214#0" to="4183708" number="0" id="13277214#0to4183708"/>
        </interval>
        <interval begin="0" end="3599">
                <flow arrivalLane="random" departLane="random" from="13277214#0" to="521161661" number="0" id="13277214#0to521161661"/>
        </interval>
        <interval begin="0" end="3599">
                <flow arrivalLane="random" departLane="random" from="13277214#0" to="55900238" number="246" id="13277214#0to55900238"/>
        </interval>
        <interval begin="0" end="3599">
                <flow arrivalLane="random" departLane="random" from="13277214#0" to="55904294" number="0" id="13277214#0to55904294"/>
        </interval>
        <interval begin="0" end="3599">
                <flow arrivalLane="random" departLane="random" from="13277214#0" to="860961742" number="0" id="13277214#0to860961742"/>
        </interval>
        <interval begin="0" end="3599">
                <flow arrivalLane="random" departLane="random" from="13277214#0" to="9599662" number="0" id="13277214#0to9599662"/>
        </interval>
        <interval begin="0" end="3599">
                <flow arrivalLane="random" departLane="random" from="13277214#0" to="9599697.51" number="0" id="13277214#0to9599697.51"/>
        </interval>
        <interval begin="0" end="3599">
                <flow arrivalLane="random" departLane="random" from="159669983#0" to="122900739" number="0" id="159669983#0to122900739"/>
        </interval>
        <interval begin="0" end="3599">
                <flow arrivalLane="random" departLane="random" from="159669983#0" to="13255021" number="0" id="159669983#0to13255021"/>
        </interval>
        <interval begin="0" end="3599">
                <flow arrivalLane="random" departLane="random" from="159669983#0" to="13259875" number="0" id="159669983#0to13259875"/>
        </interval>
        <interval begin="0" end="3599">
                <flow arrivalLane="random" departLane="random" from="159669983#0" to="13263312" number="0" id="159669983#0to13263312"/>
        </interval>
        <interval begin="0" end="3599">
                <flow arrivalLane="random" departLane="random" from="159669983#0" to="13264765" number="0" id="159669983#0to13264765"/>
        </interval>
        <interval begin="0" end="3599">
                <flow arrivalLane="random" departLane="random" from="159669983#0" to="13272361.52.53" number="0" id="159669983#0to13272361.52.53"/>
        </interval>
        <interval begin="0" end="3599">
                <flow arrivalLane="random" departLane="random" from="159669983#0" to="159669970" number="0" id="159669983#0to159669970"/>
        </interval>
        <interval begin="0" end="3599">
                <flow arrivalLane="random" departLane="random" from="159669983#0" to="186220976" number="293" id="159669983#0to186220976"/>
        </interval>
        <interval begin="0" end="3599">
                <flow arrivalLane="random" departLane="random" from="159669983#0" to="186220992" number="0" id="159669983#0to186220992"/>
        </interval>
        <interval begin="0" end="3599">
                <flow arrivalLane="random" departLane="random" from="159669983#0" to="186221005.58" number="247" id="159669983#0to186221005.58"/>
        </interval>
        <interval begin="0" end="3599">
                <flow arrivalLane="random" departLane="random" from="159669983#0" to="186221008" number="0" id="159669983#0to186221008"/>
        </interval>
        <interval begin="0" end="3599">
                <flow arrivalLane="random" departLane="random" from="159669983#0" to="24794684" number="0" id="159669983#0to24794684"/>
        </interval>
        <interval begin="0" end="3599">
                <flow arrivalLane="random" departLane="random" from="159669983#0" to="27287177" number="0" id="159669983#0to27287177"/>
        </interval>
        <interval begin="0" end="3599">
                <flow arrivalLane="random" departLane="random" from="159669983#0" to="31353399" number="0" id="159669983#0to31353399"/>
        </interval>
        <interval begin="0" end="3599">
                <flow arrivalLane="random" departLane="random" from="159669983#0" to="398018202" number="300" id="159669983#0to398018202"/>
        </interval>
        <interval begin="0" end="3599">
                <flow arrivalLane="random" departLane="random" from="159669983#0" to="398048180" number="0" id="159669983#0to398048180"/>
        </interval>
        <interval begin="0" end="3599">
                <flow arrivalLane="random" departLane="random" from="159669983#0" to="399309299" number="0" id="159669983#0to399309299"/>
        </interval>
        <interval begin="0" end="3599">
                <flow arrivalLane="random" departLane="random" from="159669983#0" to="405193624" number="0" id="159669983#0to405193624"/>
        </interval>
        <interval begin="0" end="3599">
                <flow arrivalLane="random" departLane="random" from="159669983#0" to="405317537" number="0" id="159669983#0to405317537"/>
        </interval>
        <interval begin="0" end="3599">
                <flow arrivalLane="random" departLane="random" from="159669983#0" to="4183708" number="0" id="159669983#0to4183708"/>
        </interval>
        <interval begin="0" end="3599">
                <flow arrivalLane="random" departLane="random" from="159669983#0" to="521161661" number="0" id="159669983#0to521161661"/>
        </interval>
        <interval begin="0" end="3599">
                <flow arrivalLane="random" departLane="random" from="159669983#0" to="55900238" number="0" id="159669983#0to55900238"/>
        </interval>
        <interval begin="0" end="3599">
                <flow arrivalLane="random" departLane="random" from="159669983#0" to="55904294" number="0" id="159669983#0to55904294"/>
        </interval>
        <interval begin="0" end="3599">
                <flow arrivalLane="random" departLane="random" from="159669983#0" to="860961742" number="309" id="159669983#0to860961742"/>
        </interval>
        <interval begin="0" end="3599">
                <flow arrivalLane="random" departLane="random" from="159669983#0" to="9599662" number="0" id="159669983#0to9599662"/>
        </interval>
        <interval begin="0" end="3599">
                <flow arrivalLane="random" departLane="random" from="159669983#0" to="9599697.51" number="0" id="159669983#0to9599697.51"/>
        </interval>
        <interval begin="0" end="3599">
                <flow arrivalLane="random" departLane="random" from="159763462#0" to="122900739" number="0" id="159763462#0to122900739"/>
        </interval>
        <interval begin="0" end="3599">
                <flow arrivalLane="random" departLane="random" from="159763462#0" to="13255021" number="0" id="159763462#0to13255021"/>
        </interval>
        <interval begin="0" end="3599">
                <flow arrivalLane="random" departLane="random" from="159763462#0" to="13259875" number="0" id="159763462#0to13259875"/>
        </interval>
        <interval begin="0" end="3599">
                <flow arrivalLane="random" departLane="random" from="159763462#0" to="13263312" number="0" id="159763462#0to13263312"/>
        </interval>
        <interval begin="0" end="3599">
                <flow arrivalLane="random" departLane="random" from="159763462#0" to="13264765" number="0" id="159763462#0to13264765"/>
        </interval>
        <interval begin="0" end="3599">
                <flow arrivalLane="random" departLane="random" from="159763462#0" to="13272361.52.53" number="0" id="159763462#0to13272361.52.53"/>
        </interval>
        <interval begin="0" end="3599">
                <flow arrivalLane="random" departLane="random" from="159763462#0" to="159669970" number="0" id="159763462#0to159669970"/>
        </interval>
        <interval begin="0" end="3599">
                <flow arrivalLane="random" departLane="random" from="159763462#0" to="186220976" number="0" id="159763462#0to186220976"/>
        </interval>
        <interval begin="0" end="3599">
                <flow arrivalLane="random" departLane="random" from="159763462#0" to="186220992" number="0" id="159763462#0to186220992"/>
        </interval>
        <interval begin="0" end="3599">
                <flow arrivalLane="random" departLane="random" from="159763462#0" to="186221005.58" number="0" id="159763462#0to186221005.58"/>
        </interval>
        <interval begin="0" end="3599">
                <flow arrivalLane="random" departLane="random" from="159763462#0" to="186221008" number="0" id="159763462#0to186221008"/>
        </interval>
        <interval begin="0" end="3599">
                <flow arrivalLane="random" departLane="random" from="159763462#0" to="24794684" number="0" id="159763462#0to24794684"/>
        </interval>
        <interval begin="0" end="3599">
                <flow arrivalLane="random" departLane="random" from="159763462#0" to="27287177" number="0" id="159763462#0to27287177"/>
        </interval>
        <interval begin="0" end="3599">
                <flow arrivalLane="random" departLane="random" from="159763462#0" to="31353399" number="0" id="159763462#0to31353399"/>
        </interval>
        <interval begin="0" end="3599">
                <flow arrivalLane="random" departLane="random" from="159763462#0" to="398018202" number="0" id="159763462#0to398018202"/>
        </interval>
        <interval begin="0" end="3599">
                <flow arrivalLane="random" departLane="random" from="159763462#0" to="398048180" number="0" id="159763462#0to398048180"/>
        </interval>
        <interval begin="0" end="3599">
                <flow arrivalLane="random" departLane="random" from="159763462#0" to="399309299" number="0" id="159763462#0to399309299"/>
        </interval>
        <interval begin="0" end="3599">
                <flow arrivalLane="random" departLane="random" from="159763462#0" to="405193624" number="0" id="159763462#0to405193624"/>
        </interval>
        <interval begin="0" end="3599">
                <flow arrivalLane="random" departLane="random" from="159763462#0" to="405317537" number="0" id="159763462#0to405317537"/>
        </interval>
        <interval begin="0" end="3599">
                <flow arrivalLane="random" departLane="random" from="159763462#0" to="4183708" number="0" id="159763462#0to4183708"/>
        </interval>
        <interval begin="0" end="3599">
                <flow arrivalLane="random" departLane="random" from="159763462#0" to="521161661" number="0" id="159763462#0to521161661"/>
        </interval>
        <interval begin="0" end="3599">
                <flow arrivalLane="random" departLane="random" from="159763462#0" to="55900238" number="0" id="159763462#0to55900238"/>
        </interval>
        <interval begin="0" end="3599">
                <flow arrivalLane="random" departLane="random" from="159763462#0" to="55904294" number="0" id="159763462#0to55904294"/>
        </interval>
        <interval begin="0" end="3599">
                <flow arrivalLane="random" departLane="random" from="159763462#0" to="860961742" number="319" id="159763462#0to860961742"/>
        </interval>
        <interval begin="0" end="3599">
                <flow arrivalLane="random" departLane="random" from="159763462#0" to="9599662" number="0" id="159763462#0to9599662"/>
        </interval>
        <interval begin="0" end="3599">
                <flow arrivalLane="random" departLane="random" from="159763462#0" to="9599697.51" number="0" id="159763462#0to9599697.51"/>
        </interval>
        <interval begin="0" end="3599">
                <flow arrivalLane="random" departLane="random" from="172076415" to="122900739" number="0" id="172076415to122900739"/>
        </interval>
        <interval begin="0" end="3599">
                <flow arrivalLane="random" departLane="random" from="172076415" to="13255021" number="0" id="172076415to13255021"/>
        </interval>
        <interval begin="0" end="3599">
                <flow arrivalLane="random" departLane="random" from="172076415" to="13259875" number="0" id="172076415to13259875"/>
        </interval>
        <interval begin="0" end="3599">
                <flow arrivalLane="random" departLane="random" from="172076415" to="13263312" number="0" id="172076415to13263312"/>
        </interval>
        <interval begin="0" end="3599">
                <flow arrivalLane="random" departLane="random" from="172076415" to="13264765" number="427" id="172076415to13264765"/>
        </interval>
        <interval begin="0" end="3599">
                <flow arrivalLane="random" departLane="random" from="172076415" to="13272361.52.53" number="0" id="172076415to13272361.52.53"/>
        </interval>
        <interval begin="0" end="3599">
                <flow arrivalLane="random" departLane="random" from="172076415" to="159669970" number="0" id="172076415to159669970"/>
        </interval>
        <interval begin="0" end="3599">
                <flow arrivalLane="random" departLane="random" from="172076415" to="186220976" number="0" id="172076415to186220976"/>
        </interval>
        <interval begin="0" end="3599">
                <flow arrivalLane="random" departLane="random" from="172076415" to="186220992" number="0" id="172076415to186220992"/>
        </interval>
        <interval begin="0" end="3599">
                <flow arrivalLane="random" departLane="random" from="172076415" to="186221005.58" number="0" id="172076415to186221005.58"/>
        </interval>
        <interval begin="0" end="3599">
                <flow arrivalLane="random" departLane="random" from="172076415" to="186221008" number="0" id="172076415to186221008"/>
        </interval>
        <interval begin="0" end="3599">
                <flow arrivalLane="random" departLane="random" from="172076415" to="24794684" number="0" id="172076415to24794684"/>
        </interval>
        <interval begin="0" end="3599">
                <flow arrivalLane="random" departLane="random" from="172076415" to="27287177" number="0" id="172076415to27287177"/>
        </interval>
        <interval begin="0" end="3599">
                <flow arrivalLane="random" departLane="random" from="172076415" to="31353399" number="0" id="172076415to31353399"/>
        </interval>
        <interval begin="0" end="3599">
                <flow arrivalLane="random" departLane="random" from="172076415" to="398018202" number="0" id="172076415to398018202"/>
        </interval>
        <interval begin="0" end="3599">
                <flow arrivalLane="random" departLane="random" from="172076415" to="398048180" number="0" id="172076415to398048180"/>
        </interval>
        <interval begin="0" end="3599">
                <flow arrivalLane="random" departLane="random" from="172076415" to="399309299" number="0" id="172076415to399309299"/>
        </interval>
        <interval begin="0" end="3599">
                <flow arrivalLane="random" departLane="random" from="172076415" to="405193624" number="0" id="172076415to405193624"/>
        </interval>
        <interval begin="0" end="3599">
                <flow arrivalLane="random" departLane="random" from="172076415" to="405317537" number="118" id="172076415to405317537"/>
        </interval>
        <interval begin="0" end="3599">
                <flow arrivalLane="random" departLane="random" from="172076415" to="4183708" number="0" id="172076415to4183708"/>
        </interval>
        <interval begin="0" end="3599">