<?xml version="1.0" encoding="UTF-8"?>

<!-- generated on 2021-09-28 12:17:53 by Eclipse SUMO netedit Version 1.10.0
<configuration xmlns:xsi="http://www.w3.org/2001/XMLSchema-instance" xsi:noNamespaceSchemaLocation="http://sumo.dlr.de/xsd/netconvertConfiguration.xsd">

    <input>
        <sumo-net-file value="us101.net.xml"/>
    </input>

    <output>
        <output-file value="us101.net.xml"/>
    </output>

    <processing>
        <geometry.min-radius.fix.railways value="false"/>
        <geometry.max-grade.fix value="false"/>
        <offset.disable-normalization value="true"/>
        <lefthand value="false"/>
    </processing>

    <junctions>
        <no-turnarounds value="true"/>
        <junctions.corner-detail value="5"/>
        <junctions.limit-turn-speed value="5.5"/>
        <rectangular-lane-cut value="false"/>
    </junctions>

    <pedestrian>
        <walkingareas value="false"/>
    </pedestrian>

    <report>
        <aggregate-warnings value="5"/>
    </report>

</configuration>
-->

<net version="1.9" junctionCornerDetail="5" limitTurnSpeed="5.50" xmlns:xsi="http://www.w3.org/2001/XMLSchema-instance" xsi:noNamespaceSchemaLocation="http://sumo.dlr.de/xsd/net_file.xsd">

    <location netOffset="-368081.27,-3773476.24" convBoundary="0.00,-2.51,10925.48,6996.89" origBoundary="-118.431057,34.095093,-118.311611,34.157045" projParameter="+proj=utm +zone=11 +ellps=WGS84 +datum=WGS84 +units=m +no_defs"/>

    <type id="highway.bridleway" priority="1" numLanes="1" speed="2.78" allow="pedestrian" oneway="1" width="2.00"/>
    <type id="highway.bus_guideway" priority="1" numLanes="1" speed="27.78" allow="bus" oneway="1"/>
    <type id="highway.cycleway" priority="1" numLanes="1" speed="8.33" allow="bicycle" oneway="1" width="1.00"/>
    <type id="highway.footway" priority="1" numLanes="1" speed="2.78" allow="pedestrian" oneway="1" width="2.00"/>
    <type id="highway.ford" priority="1" numLanes="1" speed="2.78" allow="army" oneway="1"/>
    <type id="highway.living_street" priority="2" numLanes="1" speed="2.78" disallow="tram rail_urban rail rail_electric rail_fast ship" oneway="1"/>
    <type id="highway.motorway" priority="14" numLanes="2" speed="39.44" allow="private emergency authority army vip passenger hov taxi bus coach delivery truck trailer motorcycle evehicle custom1 custom2" oneway="1"/>
    <type id="highway.motorway_link" priority="9" numLanes="1" speed="22.22" allow="private emergency authority army vip passenger hov taxi bus coach delivery truck trailer motorcycle evehicle custom1 custom2" oneway="1"/>
    <type id="highway.path" priority="1" numLanes="1" speed="2.78" allow="pedestrian bicycle" oneway="1" width="2.00"/>
    <type id="highway.pedestrian" priority="1" numLanes="1" speed="2.78" allow="pedestrian" oneway="1" width="2.00"/>
    <type id="highway.primary" priority="12" numLanes="2" speed="27.78" disallow="tram rail_urban rail rail_electric rail_fast ship" oneway="1"/>
    <type id="highway.primary_link" priority="7" numLanes="1" speed="22.22" disallow="tram rail_urban rail rail_electric rail_fast ship" oneway="1"/>
    <type id="highway.raceway" priority="15" numLanes="2" speed="83.33" allow="vip" oneway="1"/>
    <type id="highway.residential" priority="3" numLanes="1" speed="13.89" disallow="tram rail_urban rail rail_electric rail_fast ship" oneway="1"/>
    <type id="highway.secondary" priority="11" numLanes="1" speed="27.78" disallow="tram rail_urban rail rail_electric rail_fast ship" oneway="1"/>
    <type id="highway.secondary_link" priority="6" numLanes="1" speed="22.22" disallow="tram rail_urban rail rail_electric rail_fast ship" oneway="1"/>
    <type id="highway.service" priority="1" numLanes="1" speed="5.56" allow="pedestrian delivery bicycle" oneway="1"/>
    <type id="highway.stairs" priority="1" numLanes="1" speed="1.39" allow="pedestrian" oneway="1" width="2.00"/>
    <type id="highway.step" priority="1" numLanes="1" speed="1.39" allow="pedestrian" oneway="1" width="2.00"/>
    <type id="highway.steps" priority="1" numLanes="1" speed="1.39" allow="pedestrian" oneway="1" width="2.00"/>
    <type id="highway.tertiary" priority="10" numLanes="1" speed="22.22" disallow="tram rail_urban rail rail_electric rail_fast ship" oneway="1"/>
    <type id="highway.tertiary_link" priority="5" numLanes="1" speed="22.22" disallow="tram rail_urban rail rail_electric rail_fast ship" oneway="1"/>
    <type id="highway.track" priority="1" numLanes="1" speed="5.56" allow="pedestrian motorcycle moped bicycle" oneway="1"/>
    <type id="highway.trunk" priority="13" numLanes="2" speed="27.78" disallow="pedestrian bicycle tram rail_urban rail rail_electric rail_fast ship" oneway="1"/>
    <type id="highway.trunk_link" priority="8" numLanes="1" speed="22.22" disallow="pedestrian bicycle tram rail_urban rail rail_electric rail_fast ship" oneway="1"/>
    <type id="highway.unclassified" priority="4" numLanes="1" speed="13.89" disallow="tram rail_urban rail rail_electric rail_fast ship" oneway="1"/>
    <type id="highway.unsurfaced" priority="1" numLanes="1" speed="8.33" disallow="tram rail_urban rail rail_electric rail_fast ship" oneway="1"/>
    <type id="railway.highspeed" priority="21" numLanes="1" speed="69.44" allow="rail_fast" oneway="1"/>
    <type id="railway.light_rail" priority="19" numLanes="1" speed="27.78" allow="rail_urban" oneway="1"/>
    <type id="railway.preserved" priority="16" numLanes="1" speed="27.78" allow="rail" oneway="1"/>
    <type id="railway.rail" priority="20" numLanes="1" speed="44.44" allow="rail" oneway="1"/>
    <type id="railway.subway" priority="18" numLanes="1" speed="27.78" allow="rail_urban" oneway="1"/>
    <type id="railway.tram" priority="17" numLanes="1" speed="13.89" allow="tram" oneway="1"/>

    <edge id=":122443458_0" function="internal">
        <lane id=":122443458_0_0" index="0" allow="private emergency authority army vip passenger hov taxi bus coach delivery truck trailer motorcycle evehicle custom1 custom2" speed="24.59" length="0.30" shape="5563.78,5817.81 5564.01,5817.61"/>
        <lane id=":122443458_0_1" index="1" allow="private emergency authority army vip passenger hov taxi bus coach delivery truck trailer motorcycle evehicle custom1 custom2" speed="24.59" length="0.30" shape="5565.89,5820.22 5566.12,5820.02"/>
        <lane id=":122443458_0_2" index="2" allow="private emergency authority army vip passenger hov taxi bus coach delivery truck trailer motorcycle evehicle custom1 custom2" speed="24.59" length="0.30" shape="5568.01,5822.62 5568.23,5822.42"/>
        <lane id=":122443458_0_3" index="3" allow="private emergency authority army vip passenger hov taxi bus coach delivery truck trailer motorcycle evehicle custom1 custom2" speed="24.59" length="0.30" shape="5570.12,5825.02 5570.34,5824.83"/>
        <lane id=":122443458_0_4" index="4" allow="private emergency authority army vip passenger hov taxi bus coach delivery truck trailer motorcycle evehicle custom1 custom2" speed="24.59" length="0.30" shape="5572.23,5827.42 5572.45,5827.23"/>
    </edge>
    <edge id=":122484649_0" function="internal">
        <lane id=":122484649_0_0" index="0" allow="private emergency authority army vip passenger hov taxi bus coach delivery truck trailer motorcycle evehicle custom1 custom2" speed="24.59" length="0.29" shape="9189.39,1419.00 9189.56,1418.88"/>
        <lane id=":122484649_0_1" index="1" allow="private emergency authority army vip passenger hov taxi bus coach delivery truck trailer motorcycle evehicle custom1 custom2" speed="24.59" length="0.29" shape="9191.25,1421.60 9191.46,1421.45"/>
        <lane id=":122484649_0_2" index="2" allow="private emergency authority army vip passenger hov taxi bus coach delivery truck trailer motorcycle evehicle custom1 custom2" speed="24.59" length="0.29" shape="9193.11,1424.20 9193.37,1424.02"/>
        <lane id=":122484649_0_3" index="3" allow="private emergency authority army vip passenger hov taxi bus coach delivery truck trailer motorcycle evehicle custom1 custom2" speed="24.59" length="0.29" shape="9194.98,1426.81 9195.27,1426.59"/>
    </edge>
    <edge id=":1371866055_0" function="internal">
        <lane id=":1371866055_0_0" index="0" allow="private emergency authority army vip passenger hov taxi bus coach delivery truck trailer motorcycle evehicle custom1 custom2" speed="25.64" length="2.59" shape="4750.10,6621.24 4752.54,6620.38"/>
    </edge>
    <edge id=":1371866055_1" function="internal">
        <lane id=":1371866055_1_0" index="0" allow="private emergency authority army vip passenger hov taxi bus coach delivery truck trailer motorcycle evehicle custom1 custom2" speed="29.06" length="2.96" shape="4751.07,6624.29 4753.70,6623.40"/>
        <lane id=":1371866055_1_1" index="1" allow="private emergency authority army vip passenger hov taxi bus coach delivery truck trailer motorcycle evehicle custom1 custom2" speed="29.06" length="2.96" shape="4752.04,6627.34 4754.85,6626.39"/>
        <lane id=":1371866055_1_2" index="2" allow="private emergency authority army vip passenger hov taxi bus coach delivery truck trailer motorcycle evehicle custom1 custom2" speed="29.06" length="2.96" shape="4753.01,6630.39 4755.99,6629.38"/>
    </edge>
    <edge id=":1371866059_0" function="internal">
        <lane id=":1371866059_0_0" index="0" allow="private emergency authority army vip passenger hov taxi bus coach delivery truck trailer motorcycle evehicle custom1 custom2" speed="29.06" length="2.97" shape="4300.17,6654.18 4303.36,6654.22"/>
        <lane id=":1371866059_0_1" index="1" allow="private emergency authority army vip passenger hov taxi bus coach delivery truck trailer motorcycle evehicle custom1 custom2" speed="29.06" length="2.97" shape="4300.24,6657.38 4303.22,6657.42"/>
        <lane id=":1371866059_0_2" index="2" allow="private emergency authority army vip passenger hov taxi bus coach delivery truck trailer motorcycle evehicle custom1 custom2" speed="29.06" length="2.97" shape="4300.31,6660.58 4303.07,6660.61"/>
    </edge>
    <edge id=":1371866059_3" function="internal">
        <lane id=":1371866059_3_0" index="0" allow="private emergency authority army vip passenger hov taxi bus coach delivery truck trailer motorcycle evehicle custom1 custom2" speed="29.06" length="2.43" shape="4300.39,6663.78 4302.92,6663.81"/>
        <lane id=":1371866059_3_1" index="1" allow="private emergency authority army vip passenger hov taxi bus coach delivery truck trailer motorcycle evehicle custom1 custom2" speed="29.06" length="2.43" shape="4300.46,6666.98 4302.78,6667.00"/>
    </edge>
    <edge id=":1613371883_0" function="internal">
        <lane id=":1613371883_0_0" index="0" allow="private emergency authority army vip passenger hov taxi bus coach delivery truck trailer motorcycle evehicle custom1 custom2" speed="23.41" length="3.22" shape="10420.51,789.94 10421.07,789.17 10421.44,788.63 10421.78,788.07 10422.24,787.23"/>
    </edge>
    <edge id=":1613371883_1" function="internal">
        <lane id=":1613371883_1_0" index="0" allow="private emergency authority army vip passenger hov taxi bus coach delivery truck trailer motorcycle evehicle custom1 custom2" speed="24.59" length="3.75" shape="10423.08,791.85 10425.06,788.98"/>
        <lane id=":1613371883_1_1" index="1" allow="private emergency authority army vip passenger hov taxi bus coach delivery truck trailer motorcycle evehicle custom1 custom2" speed="24.59" length="3.75" shape="10425.65,793.75 10427.74,790.74"/>
        <lane id=":1613371883_1_2" index="2" allow="private emergency authority army vip passenger hov taxi bus coach delivery truck trailer motorcycle evehicle custom1 custom2" speed="24.59" length="3.75" shape="10428.23,795.65 10430.41,792.50"/>
        <lane id=":1613371883_1_3" index="3" allow="private emergency authority army vip passenger hov taxi bus coach delivery truck trailer motorcycle evehicle custom1 custom2" speed="24.59" length="3.75" shape="10430.80,797.56 10433.08,794.26"/>
    </edge>
    <edge id=":1613371895_0" function="internal">
        <lane id=":1613371895_0_0" index="0" allow="private emergency authority army vip passenger hov taxi bus coach delivery truck trailer motorcycle evehicle custom1 custom2" speed="23.41" length="3.48" shape="10215.92,964.36 10218.37,963.17"/>
        <lane id=":1613371895_0_1" index="1" allow="private emergency authority army vip passenger hov taxi bus coach delivery truck trailer motorcycle evehicle custom1 custom2" speed="23.41" length="3.48" shape="10217.25,967.27 10218.37,963.17"/>
    </edge>
    <edge id=":1613371895_2" function="internal">
        <lane id=":1613371895_2_0" index="0" allow="private emergency authority army vip passenger hov taxi bus coach delivery truck trailer motorcycle evehicle custom1 custom2" speed="24.59" length="3.05" shape="10217.25,967.27 10219.80,966.00"/>
        <lane id=":1613371895_2_1" index="1" allow="private emergency authority army vip passenger hov taxi bus coach delivery truck trailer motorcycle evehicle custom1 custom2" speed="24.59" length="3.05" shape="10218.58,970.18 10221.25,968.85"/>
        <lane id=":1613371895_2_2" index="2" allow="private emergency authority army vip passenger hov taxi bus coach delivery truck trailer motorcycle evehicle custom1 custom2" speed="24.59" length="3.05" shape="10219.91,973.09 10222.70,971.70"/>
        <lane id=":1613371895_2_3" index="3" allow="private emergency authority army vip passenger hov taxi bus coach delivery truck trailer motorcycle evehicle custom1 custom2" speed="24.59" length="3.05" shape="10221.24,976.00 10224.14,974.56"/>
    </edge>
    <edge id=":1613580618_0" function="internal">
        <lane id=":1613580618_0_0" index="0" allow="private emergency authority army vip passenger hov taxi bus coach delivery truck trailer motorcycle evehicle custom1 custom2" speed="23.41" length="3.46" shape="10667.88,375.49 10666.33,378.67"/>
        <lane id=":1613580618_0_1" index="1" allow="private emergency authority army vip passenger hov taxi bus coach delivery truck trailer motorcycle evehicle custom1 custom2" speed="23.41" length="3.46" shape="10664.99,374.12 10663.47,377.23"/>
        <lane id=":1613580618_0_2" index="2" allow="private emergency authority army vip passenger hov taxi bus coach delivery truck trailer motorcycle evehicle custom1 custom2" speed="23.41" length="3.46" shape="10662.10,372.75 10660.61,375.80"/>
    </edge>
    <edge id=":1613580618_3" function="internal">
        <lane id=":1613580618_3_0" index="0" allow="private emergency authority army vip passenger hov taxi bus coach delivery truck trailer motorcycle evehicle custom1 custom2" speed="24.59" length="3.19" shape="10659.20,371.39 10657.79,374.38"/>
        <lane id=":1613580618_3_1" index="1" allow="private emergency authority army vip passenger hov taxi bus coach delivery truck trailer motorcycle evehicle custom1 custom2" speed="24.59" length="3.19" shape="10656.31,370.02 10654.93,372.94"/>
        <lane id=":1613580618_3_2" index="2" allow="private emergency authority army vip passenger hov taxi bus coach delivery truck trailer motorcycle evehicle custom1 custom2" speed="24.59" length="3.19" shape="10653.41,368.65 10652.07,371.51"/>
        <lane id=":1613580618_3_3" index="3" allow="private emergency authority army vip passenger hov taxi bus coach delivery truck trailer motorcycle evehicle custom1 custom2" speed="24.59" length="3.19" shape="10650.52,367.29 10649.21,370.07"/>
    </edge>
    <edge id=":167930034_0" function="internal">
        <lane id=":167930034_0_0" index="0" allow="private emergency authority army vip passenger hov taxi bus coach delivery truck trailer motorcycle evehicle custom1 custom2" speed="23.41" length="2.96" shape="5598.16,5782.69 5600.33,5780.68"/>
    </edge>
    <edge id=":167930034_1" function="internal">
        <lane id=":167930034_1_0" index="0" allow="private emergency authority army vip passenger hov taxi bus coach delivery truck trailer motorcycle evehicle custom1 custom2" speed="24.59" length="3.01" shape="5600.33,5785.04 5602.51,5783.02"/>
        <lane id=":167930034_1_1" index="1" allow="private emergency authority army vip passenger hov taxi bus coach delivery truck trailer motorcycle evehicle custom1 custom2" speed="24.59" length="3.01" shape="5602.50,5787.39 5604.70,5785.36"/>
        <lane id=":167930034_1_2" index="2" allow="private emergency authority army vip passenger hov taxi bus coach delivery truck trailer motorcycle evehicle custom1 custom2" speed="24.59" length="3.01" shape="5604.68,5789.74 5606.88,5787.69"/>
        <lane id=":167930034_1_3" index="3" allow="private emergency authority army vip passenger hov taxi bus coach delivery truck trailer motorcycle evehicle custom1 custom2" speed="24.59" length="3.01" shape="5606.85,5792.09 5609.06,5790.03"/>
        <lane id=":167930034_1_4" index="4" allow="private emergency authority army vip passenger hov taxi bus coach delivery truck trailer motorcycle evehicle custom1 custom2" speed="24.59" length="3.01" shape="5609.02,5794.44 5611.25,5792.37"/>
    </edge>
    <edge id=":172076622#1-AddedOnRampNode_0" function="internal">
        <lane id=":172076622#1-AddedOnRampNode_0_0" index="0" allow="private emergency authority army vip passenger hov taxi bus coach delivery truck trailer motorcycle evehicle custom1 custom2" speed="29.06" length="8.00" shape="4317.11,6689.49 4309.11,6689.55"/>
        <lane id=":172076622#1-AddedOnRampNode_0_1" index="1" allow="private emergency authority army vip passenger hov taxi bus coach delivery truck trailer motorcycle evehicle custom1 custom2" speed="29.06" length="8.00" shape="4317.09,6686.29 4309.09,6686.35"/>
        <lane id=":172076622#1-AddedOnRampNode_0_2" index="2" allow="private emergency authority army vip passenger hov taxi bus coach delivery truck trailer motorcycle evehicle custom1 custom2" speed="29.06" length="8.00" shape="4317.06,6683.09 4309.06,6683.15"/>
        <lane id=":172076622#1-AddedOnRampNode_0_3" index="3" allow="private emergency authority army vip passenger hov taxi bus coach delivery truck trailer motorcycle evehicle custom1 custom2" speed="29.06" length="8.00" shape="4317.04,6679.89 4309.04,6679.95"/>
        <lane id=":172076622#1-AddedOnRampNode_0_4" index="4" allow="private emergency authority army vip passenger hov taxi bus coach delivery truck trailer motorcycle evehicle custom1 custom2" speed="29.06" length="8.00" shape="4317.02,6676.69 4309.02,6676.75"/>
    </edge>
    <edge id=":172076623-AddedOffRampNode_0" function="internal">
        <lane id=":172076623-AddedOffRampNode_0_0" index="0" allow="private emergency authority army vip passenger hov taxi bus coach delivery truck trailer motorcycle evehicle custom1 custom2" speed="29.06" length="8.20" shape="4651.36,6644.03 4653.78,6643.36 4655.22,6642.18 4656.67,6640.96 4659.08,6640.20"/>
        <lane id=":172076623-AddedOffRampNode_0_1" index="1" allow="private emergency authority army vip passenger hov taxi bus coach delivery truck trailer motorcycle evehicle custom1 custom2" speed="29.06" length="8.20" shape="4651.36,6644.03 4659.33,6643.39"/>
        <lane id=":172076623-AddedOffRampNode_0_2" index="2" allow="private emergency authority army vip passenger hov taxi bus coach delivery truck trailer motorcycle evehicle custom1 custom2" speed="29.06" length="8.20" shape="4651.61,6647.22 4659.59,6646.59"/>
        <lane id=":172076623-AddedOffRampNode_0_3" index="3" allow="private emergency authority army vip passenger hov taxi bus coach delivery truck trailer motorcycle evehicle custom1 custom2" speed="29.06" length="8.20" shape="4651.86,6650.41 4659.84,6649.78"/>
    </edge>
    <edge id=":1830192225_0" function="internal">
        <lane id=":1830192225_0_0" index="0" allow="private emergency authority army vip passenger hov taxi bus coach delivery truck trailer motorcycle evehicle custom1 custom2" speed="29.06" length="0.45" shape="5097.31,6523.86 5096.99,6524.36"/>
        <lane id=":1830192225_0_1" index="1" allow="private emergency authority army vip passenger hov taxi bus coach delivery truck trailer motorcycle evehicle custom1 custom2" speed="29.06" length="0.45" shape="5094.59,6522.18 5094.34,6522.56"/>
        <lane id=":1830192225_0_2" index="2" allow="private emergency authority army vip passenger hov taxi bus coach delivery truck trailer motorcycle evehicle custom1 custom2" speed="29.06" length="0.45" shape="5091.86,6520.50 5091.70,6520.75"/>
    </edge>
    <edge id=":1837462634_0" function="internal">
        <lane id=":1837462634_0_0" index="0" allow="private emergency authority army vip passenger hov taxi bus coach delivery truck trailer motorcycle evehicle custom1 custom2" speed="24.59" length="0.51" shape="8688.21,1978.83 8688.51,1977.98"/>
        <lane id=":1837462634_0_1" index="1" allow="private emergency authority army vip passenger hov taxi bus coach delivery truck trailer motorcycle evehicle custom1 custom2" speed="24.59" length="0.51" shape="8691.26,1979.79 8691.48,1979.19"/>
        <lane id=":1837462634_0_2" index="2" allow="private emergency authority army vip passenger hov taxi bus coach delivery truck trailer motorcycle evehicle custom1 custom2" speed="24.59" length="0.51" shape="8694.31,1980.76 8694.44,1980.40"/>
        <lane id=":1837462634_0_3" index="3" allow="private emergency authority army vip passenger hov taxi bus coach delivery truck trailer motorcycle evehicle custom1 custom2" speed="24.59" length="0.51" shape="8697.36,1981.72 8697.40,1981.60"/>
    </edge>
    <edge id=":1837462644_0" function="internal">
        <lane id=":1837462644_0_0" index="0" allow="private emergency authority army vip passenger hov taxi bus coach delivery truck trailer motorcycle evehicle custom1 custom2" speed="23.41" length="2.71" shape="8405.71,2858.93 8407.14,2856.70"/>
        <lane id=":1837462644_0_1" index="1" allow="private emergency authority army vip passenger hov taxi bus coach delivery truck trailer motorcycle evehicle custom1 custom2" speed="23.41" length="2.71" shape="8408.37,2860.70 8409.87,2858.36"/>
    </edge>
    <edge id=":1837462644_2" function="internal">
        <lane id=":1837462644_2_0" index="0" allow="private emergency authority army vip passenger hov taxi bus coach delivery truck trailer motorcycle evehicle custom1 custom2" speed="24.59" length="3.55" shape="8411.03,2862.48 8411.32,2861.59 8411.15,2860.85 8410.98,2860.11 8411.28,2859.22"/>
        <lane id=":1837462644_2_1" index="1" allow="private emergency authority army vip passenger hov taxi bus coach delivery truck trailer motorcycle evehicle custom1 custom2" speed="24.59" length="3.55" shape="8413.69,2864.25 8414.01,2863.33 8413.85,2862.57 8413.70,2861.81 8414.01,2860.89"/>
        <lane id=":1837462644_2_2" index="2" allow="private emergency authority army vip passenger hov taxi bus coach delivery truck trailer motorcycle evehicle custom1 custom2" speed="24.59" length="3.55" shape="8416.36,2866.03 8416.69,2865.08 8416.55,2864.29 8416.41,2863.51 8416.74,2862.56"/>
        <lane id=":1837462644_2_3" index="3" allow="private emergency authority army vip passenger hov taxi bus coach delivery truck trailer motorcycle evehicle custom1 custom2" speed="24.59" length="3.55" shape="8419.02,2867.80 8419.37,2866.82 8419.25,2866.02 8419.13,2865.21 8419.48,2864.23"/>
    </edge>
    <edge id=":1969137119_0" function="internal">
        <lane id=":1969137119_0_0" index="0" allow="private emergency authority army vip passenger hov taxi bus coach delivery truck trailer motorcycle evehicle custom1 custom2" speed="25.64" length="3.03" shape="5153.11,6419.78 5151.83,6422.52"/>
    </edge>
    <edge id=":1969137119_1" function="internal">
        <lane id=":1969137119_1_0" index="0" allow="private emergency authority army vip passenger hov taxi bus coach delivery truck trailer motorcycle evehicle custom1 custom2" speed="29.06" length="2.99" shape="5150.17,6418.45 5148.92,6421.19"/>
        <lane id=":1969137119_1_1" index="1" allow="private emergency authority army vip passenger hov taxi bus coach delivery truck trailer motorcycle evehicle custom1 custom2" speed="29.06" length="2.99" shape="5147.26,6417.14 5146.01,6419.86"/>
        <lane id=":1969137119_1_2" index="2" allow="private emergency authority army vip passenger hov taxi bus coach delivery truck trailer motorcycle evehicle custom1 custom2" speed="29.06" length="2.99" shape="5144.34,6415.82 5143.11,6418.52"/>
    </edge>
    <edge id=":226328500-AddedOffRampNode_0" function="internal">
        <lane id=":226328500-AddedOffRampNode_0_0" index="0" allow="private emergency authority army vip passenger hov taxi bus coach delivery truck trailer motorcycle evehicle custom1 custom2" speed="24.59" length="8.13" shape="7802.98,3690.30 7801.78,3692.51 7801.64,3694.39 7801.50,3696.28 7800.30,3698.49"/>
        <lane id=":226328500-AddedOffRampNode_0_1" index="1" allow="private emergency authority army vip passenger hov taxi bus coach delivery truck trailer motorcycle evehicle custom1 custom2" speed="24.59" length="8.13" shape="7802.98,3690.30 7797.85,3696.44"/>
        <lane id=":226328500-AddedOffRampNode_0_2" index="2" allow="private emergency authority army vip passenger hov taxi bus coach delivery truck trailer motorcycle evehicle custom1 custom2" speed="24.59" length="8.13" shape="7800.52,3688.25 7795.39,3694.38"/>
        <lane id=":226328500-AddedOffRampNode_0_3" index="3" allow="private emergency authority army vip passenger hov taxi bus coach delivery truck trailer motorcycle evehicle custom1 custom2" speed="24.59" length="8.13" shape="7798.07,3686.19 7792.94,3692.33"/>
        <lane id=":226328500-AddedOffRampNode_0_4" index="4" allow="private emergency authority army vip passenger hov taxi bus coach delivery truck trailer motorcycle evehicle custom1 custom2" speed="24.59" length="8.13" shape="7795.61,3684.14 7790.48,3690.28"/>
        <lane id=":226328500-AddedOffRampNode_0_5" index="5" allow="private emergency authority army vip passenger hov taxi bus coach delivery truck trailer motorcycle evehicle custom1 custom2" speed="24.59" length="8.13" shape="7793.16,3682.09 7788.03,3688.22"/>
    </edge>
    <edge id=":2351739203_0" function="internal">
        <lane id=":2351739203_0_0" index="0" allow="private emergency authority army vip passenger hov taxi bus coach delivery truck trailer motorcycle evehicle custom1 custom2" speed="24.59" length="0.55" shape="7987.22,3345.34 7987.64,3344.74"/>
        <lane id=":2351739203_0_1" index="1" allow="private emergency authority army vip passenger hov taxi bus coach delivery truck trailer motorcycle evehicle custom1 custom2" speed="24.59" length="0.55" shape="7989.87,3347.13 7990.24,3346.60"/>
        <lane id=":2351739203_0_2" index="2" allow="private emergency authority army vip passenger hov taxi bus coach delivery truck trailer motorcycle evehicle custom1 custom2" speed="24.59" length="0.55" shape="7992.53,3348.92 7992.84,3348.47"/>
        <lane id=":2351739203_0_3" index="3" allow="private emergency authority army vip passenger hov taxi bus coach delivery truck trailer motorcycle evehicle custom1 custom2" speed="24.59" length="0.55" shape="7995.18,3350.70 7995.44,3350.33"/>
        <lane id=":2351739203_0_4" index="4" allow="private emergency authority army vip passenger hov taxi bus coach delivery truck trailer motorcycle evehicle custom1 custom2" speed="24.59" length="0.55" shape="7997.84,3352.49 7998.04,3352.20"/>
    </edge>
    <edge id=":2351743390_0" function="internal">
        <lane id=":2351743390_0_0" index="0" allow="private emergency authority army vip passenger hov taxi bus coach delivery truck trailer motorcycle evehicle custom1 custom2" speed="24.59" length="0.30" shape="8744.53,1852.04 8744.68,1851.75"/>
        <lane id=":2351743390_0_1" index="1" allow="private emergency authority army vip passenger hov taxi bus coach delivery truck trailer motorcycle evehicle custom1 custom2" speed="24.59" length="0.30" shape="8747.36,1853.52 8747.51,1853.25"/>
        <lane id=":2351743390_0_2" index="2" allow="private emergency authority army vip passenger hov taxi bus coach delivery truck trailer motorcycle evehicle custom1 custom2" speed="24.59" length="0.30" shape="8750.20,1855.01 8750.33,1854.75"/>
        <lane id=":2351743390_0_3" index="3" allow="private emergency authority army vip passenger hov taxi bus coach delivery truck trailer motorcycle evehicle custom1 custom2" speed="24.59" length="0.30" shape="8753.03,1856.49 8753.16,1856.24"/>
    </edge>
    <edge id=":2351743393_0" function="internal">
        <lane id=":2351743393_0_0" index="0" allow="private emergency authority army vip passenger hov taxi bus coach delivery truck trailer motorcycle evehicle custom1 custom2" speed="24.59" length="3.08" shape="7412.80,4104.57 7414.72,4102.43"/>
        <lane id=":2351743393_0_1" index="1" allow="private emergency authority army vip passenger hov taxi bus coach delivery truck trailer motorcycle evehicle custom1 custom2" speed="24.59" length="3.08" shape="7415.14,4106.75 7417.13,4104.53"/>
        <lane id=":2351743393_0_2" index="2" allow="private emergency authority army vip passenger hov taxi bus coach delivery truck trailer motorcycle evehicle custom1 custom2" speed="24.59" length="3.08" shape="7417.48,4108.94 7419.54,4106.64"/>
        <lane id=":2351743393_0_3" index="3" allow="private emergency authority army vip passenger hov taxi bus coach delivery truck trailer motorcycle evehicle custom1 custom2" speed="24.59" length="3.08" shape="7419.83,4111.12 7421.95,4108.74"/>