<?xml version="1.0" encoding="UTF-8"?>

<!-- generated on 2021-09-22 20:05:02 by Eclipse SUMO duarouter Version 1.10.0
<configuration xmlns:xsi="http://www.w3.org/2001/XMLSchema-instance" xsi:noNamespaceSchemaLocation="http://sumo.dlr.de/xsd/duarouterConfiguration.xsd">

    <input>
        <net-file value="us101.net.xml"/>
        <route-files value="us101.trips.xml"/>
    </input>

    <output>
        <output-file value="us101.rou.xml"/>
        <alternatives-output value="us101.rou.alt.xml"/>
    </output>

    <time>
        <begin value="0"/>
        <end value="600"/>
    </time>

    <report>
        <no-warnings value="true"/>
        <ignore-errors value="true"/>
        <no-step-log value="true"/>
    </report>

</configuration>
-->

<routes xmlns:xsi="http://www.w3.org/2001/XMLSchema-instance" xsi:noNamespaceSchemaLocation="http://sumo.dlr.de/xsd/routes_file.xsd">
    <vehicle id="6" depart="3.00">
        <route edges="129048306 866532623 866532624 31353386 31353366 226663235 866645922 226663234 25710104 226666943"/>
    </vehicle>
    <vehicle id="13" depart="6.50">
        <route edges="172076622#0"/>
    </vehicle>
    <vehicle id="14" depart="7.00">
        <route edges="864141294-AddedOffRampEdge 864141293 30636675 24794667#0 24794667#1 25003395 24794581 24794581-AddedOffRampEdge 859705684 25003398 25003399 172076192 172076190 55904299 519777708#0 519777708#1-AddedOnRampEdge"/>
    </vehicle>
    <vehicle id="16" depart="8.00">
        <route edges="44335126#1-AddedOnRampEdge 44335126#1 66519378 66519379 66519376 66519375 66519375-AddedOffRampEdge 861071281 27287060 27286947#0 27286947#1 27286946 27286722-AddedOnRampEdge 27286722 27286725 24813112 172076623 172076623-AddedOffRampEdge 299078428 32233218 32233202 172777690 122900683 25003400 25003401-AddedOnRampEdge 25003401 25003394 24794617 24794606 9599697"/>
    </vehicle>
    <vehicle id="20" depart="10.00">
        <route edges="66519377 66519384 66519384-AddedOffRampEdge 13264765"/>
    </vehicle>
    <vehicle id="27" depart="13.50">
        <route edges="58583367 58583370 58583336 866618593 866618594 31353398 862934679 862934679.189 862934679.930 862934679.1003 734604565 226328501 859731738 226328500 226328500-AddedOffRampEdge 862954171#0 862954171#1-AddedOnRampEdge 862954171#1 866655240 866655240-AddedOffRampEdge 864141294 864141294-AddedOffRampEdge 864141293 30636675 24794667#0 24794667#1 25003395 24794581 24794581-AddedOffRampEdge 859705684 25003398 25003399 172076192 172076190 55904299 519777708#0 519777708#1-AddedOnRampEdge"/>
    </vehicle>
    <vehicle id="39" depart="19.50">
        <route edges="25003394 24794617 24794606"/>
    </vehicle>
    <vehicle id="42" depart="21.00">
        <route edges="27287060 27286947#0 27286947#1 27286946 27286722-AddedOnRampEdge 27286722 27286725 24813112 172076623 172076623-AddedOffRampEdge 299078428 32233218 32233202 172777690 122900683 25003400 25003401-AddedOnRampEdge 25003401 25003394 24794617 24794606 24794598#0 24794598#1-AddedOnRampEdge 24794598#1"/>
    </vehicle>
    <vehicle id="43" depart="21.50">
        <route edges="976039454 24794598#1-AddedOnRampEdge 24794598#1 24794598#2-AddedOnRampEdge 24794598#2 968917472-AddedOnRampEdge 968917472 866591865 866591865-AddedOffRampEdge 399309299"/>
    </vehicle>
    <vehicle id="44" depart="22.00">
        <route edges="172076622#0 172076622#1-AddedOnRampEdge 172076622#1 27286724 27286723 27286723-AddedOffRampEdge 27286945 27286944 861058556 27287063 27287065#0 27287065#1-AddedOnRampEdge 27287065#1 66519380 66519374 66519377 66519384 66519384-AddedOffRampEdge 13264765"/>
    </vehicle>
    <vehicle id="49" depart="24.50">
        <route edges="967761663 862934679.1003 734604565 226328501 859731738 226328500 226328500-AddedOffRampEdge 862954171#0 862954171#1-AddedOnRampEdge 862954171#1 866655240 866655240-AddedOffRampEdge 864141294 864141294-AddedOffRampEdge 864141293"/>
    </vehicle>
    <vehicle id="53" depart="26.50">
        <route edges="172076623 172076623-AddedOffRampEdge 299078428"/>
    </vehicle>
    <vehicle id="56" depart="28.00">
        <route edges="398211234 866618593 866618594 31353398 862934679 862934679.189 862934679.930 862934679.1003 734604565 226328501"/>
    </vehicle>
    <vehicle id="57" depart="28.50">
        <route edges="866618593 866618594 31353398 862934679 862934679.189 862934679.930 862934679.1003 734604565 226328501 859731738 226328500 226328500-AddedOffRampEdge 862954171#0 862954171#1-AddedOnRampEdge 862954171#1 866655240 866655240-AddedOffRampEdge 864141294 864141294-AddedOffRampEdge"/>
    </vehicle>
    <vehicle id="60" depart="30.00">
        <route edges="859623112 44335127 44335126#0"/>
    </vehicle>
    <vehicle id="66" depart="33.00">
        <route edges="866532624 31353386 31353366 226663235 866645922"/>
    </vehicle>
    <vehicle id="73" depart="36.50">
        <route edges="44335126#1-AddedOnRampEdge 44335126#1 66519378"/>
    </vehicle>
    <vehicle id="77" depart="38.50">
        <route edges="172777690 122900683 25003400 25003401-AddedOnRampEdge 25003401 25003394 24794617 24794606 24794598#0 24794598#1-AddedOnRampEdge 24794598#1"/>
    </vehicle>
    <vehicle id="79" depart="39.50">
        <route edges="24794617 24794606 24794598#0 24794598#1-AddedOnRampEdge 24794598#1"/>
    </vehicle>
    <vehicle id="80" depart="40.00">
        <route edges="172076192 172076190 55904299 519777708#0 519777708#1-AddedOnRampEdge 519777708#1 172076417 32233343 122900713 172076622#0 172076622#1-AddedOnRampEdge 172076622#1 27286724 27286723 27286723-AddedOffRampEdge 27286945 27286944 861058556 27287063 27287065#0 27287065#1-AddedOnRampEdge 27287065#1 66519380 66519374 66519377 66519384 66519384-AddedOffRampEdge 862427534 44335129 44335128#0 44335128#1-AddedOnRampEdge 44335128#1 55900239 55900238"/>
    </vehicle>
    <vehicle id="81" depart="40.50">
        <route edges="24794606 24794598#0 24794598#1-AddedOnRampEdge 24794598#1 24794598#2-AddedOnRampEdge 24794598#2 968917472-AddedOnRampEdge 968917472 866591865"/>
    </vehicle>
    <vehicle id="85" depart="42.50">
        <route edges="866655240 866655240-AddedOffRampEdge 864141294 864141294-AddedOffRampEdge 864141293 30636675 24794667#0 24794667#1 25003395 24794581 24794581-AddedOffRampEdge 859705684 25003398 25003399 172076192 172076190 55904299 519777708#0 519777708#1-AddedOnRampEdge 519777708#1 172076417 32233343 122900713 172076622#0 172076622#1-AddedOnRampEdge 172076622#1 27286724 27286723 27286723-AddedOffRampEdge 27286945 27286944 861058556 27287063 27287065#0 27287065#1-AddedOnRampEdge 27287065#1 66519380 66519374 66519377 66519384 66519384-AddedOffRampEdge 862427534 44335129 44335128#0 44335128#1-AddedOnRampEdge 44335128#1"/>
    </vehicle>
    <vehicle id="96" depart="48.00">
        <route edges="24794870#0 24794870#1 24794606 24794598#0 24794598#1-AddedOnRampEdge 24794598#1 24794598#2-AddedOnRampEdge 24794598#2 968917472-AddedOnRampEdge 968917472 866591865 866591865-AddedOffRampEdge 122900675 734604564 734604563 866532623 866532624 31353386 31353366 226663235 866645922 226663234 25710104 226666943 864558248 864558247 864558247-AddedOffRampEdge 866596939#0 866596939#1-AddedOnRampEdge 866596939#1"/>
    </vehicle>
    <vehicle id="97" depart="48.50">
        <route edges="299078431#1 606788906 606788905 58583369 58583367 58583370 58583336 866618593 866618594 31353398 862934679 862934679.189 862934679.930 862934679.1003 734604565 226328501 859731738 226328500 226328500-AddedOffRampEdge 862954171#0 862954171#1-AddedOnRampEdge 862954171#1 866655240 866655240-AddedOffRampEdge 864141294 864141294-AddedOffRampEdge 864141293"/>
    </vehicle>
    <vehicle id="102" depart="51.00">
        <route edges="32233202 172777690 122900683 25003400 25003401-AddedOnRampEdge 25003401 25003394 24794617 24794606 24794598#0"/>
    </vehicle>
    <vehicle id="104" depart="52.00">
        <route edges="27286947#0 27286947#1 27286946 27286722-AddedOnRampEdge 27286722 27286725 24813112 172076623 172076623-AddedOffRampEdge 299078428 32233218 32233202 172777690 122900683 25003400 25003401-AddedOnRampEdge 25003401 25003394 24794617 24794606 24794598#0 24794598#1-AddedOnRampEdge 24794598#1 24794598#2-AddedOnRampEdge 24794598#2 968917472-AddedOnRampEdge 968917472"/>
    </vehicle>
    <vehicle id="109" depart="54.50">
        <route edges="226328500-AddedOffRampEdge 862954171#0 862954171#1-AddedOnRampEdge 862954171#1 866655240 866655240-AddedOffRampEdge 864141294 864141294-AddedOffRampEdge 864141293 30636675 24794667#0 24794667#1 25003395 24794581 24794581-AddedOffRampEdge 859705684 25003398"/>
    </vehicle>
    <vehicle id="110" depart="55.00">
        <route edges="967545144 24794667#1 25003395 24794581 24794581-AddedOffRampEdge 859705684 25003398 25003399 172076192 172076190 55904299 519777708#0 519777708#1-AddedOnRampEdge 519777708#1 172076417 32233343 122900713 172076622#0 172076622#1-AddedOnRampEdge 172076622#1 27286724 27286723 27286723-AddedOffRampEdge 27286945 27286944 861058556 27287063 27287065#0 27287065#1-AddedOnRampEdge 27287065#1 66519380 66519374 66519377 66519384 66519384-AddedOffRampEdge 862427534 44335129 44335128#0 44335128#1-AddedOnRampEdge"/>
    </vehicle>
    <vehicle id="113" depart="56.50">
        <route edges="398211234 866618593 866618594 31353398 862934679 862934679.189 862934679.930 862934679.1003 734604565 226328501 859731738 226328500 226328500-AddedOffRampEdge 862954171#0 862954171#1-AddedOnRampEdge"/>
    </vehicle>
    <vehicle id="114" depart="57.00">
        <route edges="226328500-AddedOffRampEdge 862954171#0 862954171#1-AddedOnRampEdge 862954171#1 866655240 866655240-AddedOffRampEdge"/>
    </vehicle>
    <vehicle id="120" depart="60.00">
        <route edges="27287065#1-AddedOnRampEdge 27287065#1 66519380 66519374 66519377 66519384 66519384-AddedOffRampEdge 862427534 44335129"/>
    </vehicle>
    <vehicle id="124" depart="62.00">
        <route edges="606788906 606788905 58583369 58583367 58583370 58583336 866618593 866618594 31353398 862934679 862934679.189 862934679.930 862934679.1003 734604565 226328501 859731738 226328500 226328500-AddedOffRampEdge 862954171#0 862954171#1-AddedOnRampEdge 862954171#1 866655240 866655240-AddedOffRampEdge 864141294 864141294-AddedOffRampEdge 864141293 30636675 24794667#0 24794667#1 25003395 24794581 24794581-AddedOffRampEdge 859705684 25003398"/>
    </vehicle>
    <vehicle id="129" depart="64.50">
        <route edges="25003394 24794617 24794606 24794598#0 24794598#1-AddedOnRampEdge 24794598#1 24794598#2-AddedOnRampEdge 24794598#2 968917472-AddedOnRampEdge 968917472 866591865 866591865-AddedOffRampEdge 122900675 734604564 734604563 866532623 866532624 31353386 31353366 226663235 866645922 226663234 25710104 226666943 864558248 864558247 864558247-AddedOffRampEdge 866596939#0 866596939#1-AddedOnRampEdge"/>
    </vehicle>
    <vehicle id="130" depart="65.00">
        <route edges="866532624 31353386 31353366 226663235 866645922 226663234 25710104 226666943 864558248 864558247"/>
    </vehicle>
    <vehicle id="132" depart="66.00">
        <route edges="862954171#1-AddedOnRampEdge 862954171#1 866655240 866655240-AddedOffRampEdge 864141294 864141294-AddedOffRampEdge 864141293 30636675 24794667#0 24794667#1 25003395 24794581 24794581-AddedOffRampEdge 859705684 25003398 25003399 172076192 172076190 55904299 519777708#0 519777708#1-AddedOnRampEdge 519777708#1 172076417 32233343 122900713 172076622#0 172076622#1-AddedOnRampEdge 172076622#1 27286724 27286723 27286723-AddedOffRampEdge 27286945 27286944 861058556 27287063 27287065#0 27287065#1-AddedOnRampEdge 27287065#1 66519380 66519374"/>
    </vehicle>
    <vehicle id="133" depart="66.50">
        <route edges="535908440#1 24794598#2-AddedOnRampEdge 24794598#2 968917472-AddedOnRampEdge 968917472"/>
    </vehicle>
    <vehicle id="135" depart="67.50">
        <route edges="862934679.930 862934679.1003 734604565 226328501 859731738 226328500 226328500-AddedOffRampEdge 862954171#0 862954171#1-AddedOnRampEdge 862954171#1 866655240 866655240-AddedOffRampEdge 864141294 864141294-AddedOffRampEdge 864141293 30636675 24794667#0 24794667#1 25003395 24794581 24794581-AddedOffRampEdge 859705684 25003398"/>
    </vehicle>
    <vehicle id="136" depart="68.00">
        <route edges="58583370 58583336 866618593"/>
    </vehicle>
    <vehicle id="139" depart="69.50">
        <route edges="25003395 24794581 24794581-AddedOffRampEdge 859705684 25003398 25003399 172076192 172076190 55904299 519777708#0 519777708#1-AddedOnRampEdge"/>
    </vehicle>
    <vehicle id="142" depart="71.00">
        <route edges="32233218 32233202 172777690 122900683 25003400 25003401-AddedOnRampEdge 25003401 25003394 24794617 24794606 24794598#0 24794598#1-AddedOnRampEdge 24794598#1 24794598#2-AddedOnRampEdge 24794598#2 968917472-AddedOnRampEdge 968917472 866591865"/>
    </vehicle>
    <vehicle id="143" depart="71.50">
        <route edges="864141294 864141294-AddedOffRampEdge 864141293 30636675 24794667#0 24794667#1 25003395 24794581 24794581-AddedOffRampEdge 859705684 25003398 25003399 172076192 172076190 55904299 519777708#0 519777708#1-AddedOnRampEdge 519777708#1 172076417"/>
    </vehicle>
    <vehicle id="151" depart="75.50">
        <route edges="862954171#1-AddedOnRampEdge 862954171#1 866655240 866655240-AddedOffRampEdge 864141294 864141294-AddedOffRampEdge 864141293 30636675 24794667#0 24794667#1 25003395 24794581 24794581-AddedOffRampEdge 859705684 25003398 25003399 172076192 172076190 55904299 519777708#0 519777708#1-AddedOnRampEdge 519777708#1 172076417 32233343 122900713 172076622#0 172076622#1-AddedOnRampEdge 172076622#1 27286724 27286723 27286723-AddedOffRampEdge 27286945 27286944 861058556 27287063 27287065#0 27287065#1-AddedOnRampEdge 27287065#1 66519380 66519374 66519377 66519384 66519384-AddedOffRampEdge 862427534 44335129"/>
    </vehicle>
    <vehicle id="153" depart="76.50">
        <route edges="25003407 25003401-AddedOnRampEdge 25003401 25003394 24794617 24794606 24794598#0 24794598#1-AddedOnRampEdge 24794598#1 24794598#2-AddedOnRampEdge 24794598#2 968917472-AddedOnRampEdge 968917472 866591865 866591865-AddedOffRampEdge 122900675 734604564 734604563 866532623"/>
    </vehicle>
    <vehicle id="154" depart="77.00">
        <route edges="862934679 862934679.189 862934679.930 862934679.1003 734604565 226328501 859731738 226328500 226328500-AddedOffRampEdge 862954171#0 862954171#1-AddedOnRampEdge 862954171#1 866655240 866655240-AddedOffRampEdge 864141294 864141294-AddedOffRampEdge 864141293"/>
    </vehicle>
    <vehicle id="163" depart="81.50">
        <route edges="27286722-AddedOnRampEdge 27286722 27286725 24813112 172076623 172076623-AddedOffRampEdge 299078428 32233218 32233202 172777690 122900683 25003400 25003401-AddedOnRampEdge 25003401 25003394 24794617 24794606 24794598#0 24794598#1-AddedOnRampEdge 24794598#1 24794598#2-AddedOnRampEdge 24794598#2 968917472-AddedOnRampEdge 968917472 866591865 866591865-AddedOffRampEdge 122900675 734604564 734604563 866532623 866532624 31353386 31353366 226663235 866645922 226663234 25710104 226666943 864558248 864558247 864558247-AddedOffRampEdge 866596939#0 866596939#1-AddedOnRampEdge"/>
    </vehicle>
    <vehicle id="164" depart="82.00">
        <route edges="862934679.1003 734604565 226328501 859731738 226328500 226328500-AddedOffRampEdge 862954171#0 862954171#1-AddedOnRampEdge 862954171#1 866655240 866655240-AddedOffRampEdge 864141294"/>
    </vehicle>
    <vehicle id="165" depart="82.50">
        <route edges="862934679.189 862934679.930 862934679.1003 734604565 226328501 859731738 226328500 226328500-AddedOffRampEdge 862954171#0 862954171#1-AddedOnRampEdge 862954171#1 866655240 866655240-AddedOffRampEdge 864141294 864141294-AddedOffRampEdge 24794684"/>
    </vehicle>
    <vehicle id="171" depart="85.50">
        <route edges="129048306 866532623 866532624 31353386 31353366 226663235"/>
    </vehicle>
    <vehicle id="178" depart="89.00">
        <route edges="9599921#1 866655240 866655240-AddedOffRampEdge 864141294 864141294-AddedOffRampEdge 864141293 30636675 24794667#0 24794667#1"/>
    </vehicle>
    <vehicle id="179" depart="89.50">
        <route edges="172076623 172076623-AddedOffRampEdge 299078428"/>
    </vehicle>
    <vehicle id="181" depart="90.50">
        <route edges="535908440#1 24794598#2-AddedOnRampEdge 24794598#2 968917472-AddedOnRampEdge 968917472 866591865 866591865-AddedOffRampEdge 399309299"/>
    </vehicle>
    <vehicle id="184" depart="92.00">
        <route edges="122900675 734604564 734604563 866532623 866532624 31353386 31353366 226663235 866645922 226663234 25710104 226666943 864558248 864558247 864558247-AddedOffRampEdge 866596939#0 866596939#1-AddedOnRampEdge 866596939#1"/>
    </vehicle>
    <vehicle id="185" depart="92.50">
        <route edges="44335126#1-AddedOnRampEdge 44335126#1 66519378 66519379 66519376"/>
    </vehicle>
    <vehicle id="193" depart="96.50">
        <route edges="186220971#0 186220971#1 862954171#1-AddedOnRampEdge 862954171#1 866655240 866655240-AddedOffRampEdge 864141294 864141294-AddedOffRampEdge 864141293 30636675 24794667#0 24794667#1 25003395 24794581 24794581-AddedOffRampEdge 859705684 25003398 25003399 172076192 172076190 55904299 519777708#0 519777708#1-AddedOnRampEdge 519777708#1 172076417 32233343 122900713 172076622#0 172076622#1-AddedOnRampEdge 172076622#1 27286724 27286723 27286723-AddedOffRampEdge 27286945 27286944 861058556 27287063 27287065#0 27287065#1-AddedOnRampEdge"/>
    </vehicle>
    <vehicle id="202" depart="101.00">
        <route edges="862934679 862934679.189 862934679.930 862934679.1003 734604565 226328501 859731738 226328500"/>
    </vehicle>
    <vehicle id="204" depart="102.00">
        <route edges="55900242-AddedOffRampEdge 859623112 44335127 44335126#0 44335126#1-AddedOnRampEdge 44335126#1 66519378 66519379 66519376 66519375 66519375-AddedOffRampEdge 861071281 27287060 27286947#0 27286947#1 27286946 27286722-AddedOnRampEdge 27286722"/>
    </vehicle>
    <vehicle id="205" depart="102.50">
        <route edges="862954171#0 862954171#1-AddedOnRampEdge 862954171#1 866655240 866655240-AddedOffRampEdge 864141294 864141294-AddedOffRampEdge 864141293 30636675 24794667#0 24794667#1 25003395 24794581 24794581-AddedOffRampEdge 859705684 25003398 25003399 172076192 172076190 55904299 519777708#0 519777708#1-AddedOnRampEdge 519777708#1 172076417 32233343 122900713 172076622#0 172076622#1-AddedOnRampEdge 172076622#1 27286724 27286723 27286723-AddedOffRampEdge 27286945 27286944 861058556 27287063 27287065#0 27287065#1-AddedOnRampEdge 27287065#1 66519380 66519374 66519377 66519384"/>
    </vehicle>
    <vehicle id="210" depart="105.00">
        <route edges="27287065#1 66519380 66519374 66519377 66519384 66519384-AddedOffRampEdge 862427534 44335129 44335128#0 44335128#1-AddedOnRampEdge 44335128#1 55900239 55900238"/>
    </vehicle>
    <vehicle id="214" depart="107.00">
        <route edges="734604565"/>
    </vehicle>
    <vehicle id="232" depart="116.00">
        <route edges="44335126#1-AddedOnRampEdge 44335126#1 66519378 66519379 66519376 66519375 66519375-AddedOffRampEdge 861071281 27287060 27286947#0 27286947#1 27286946 27286722-AddedOnRampEdge 27286722 27286725 24813112 172076623 172076623-AddedOffRampEdge 299078428 32233218 32233202 172777690 122900683 25003400 25003401-AddedOnRampEdge 25003401 25003394 24794617 24794606 24794598#0 24794598#1-AddedOnRampEdge 24794598#1 24794598#2-AddedOnRampEdge 24794598#2 968917472-AddedOnRampEdge 968917472 866591865 866591865-AddedOffRampEdge 122900675 734604564 734604563 866532623 866532624 31353386 31353366 226663235 866645922 226663234 25710104 226666943 864558248 864558247 864558247-AddedOffRampEdge 186220976"/>
    </vehicle>
    <vehicle id="240" depart="120.00">
        <route edges="27286947#0 27286947#1 27286946 27286722-AddedOnRampEdge 27286722 27286725 24813112 172076623 172076623-AddedOffRampEdge 299078428 32233218 32233202 172777690 122900683 25003400 25003401-AddedOnRampEdge 25003401 25003394 24794617 24794606 24794598#0 24794598#1-AddedOnRampEdge 24794598#1 24794598#2-AddedOnRampEdge 24794598#2 968917472-AddedOnRampEdge 968917472 866591865 866591865-AddedOffRampEdge 122900675"/>
    </vehicle>
    <vehicle id="241" depart="120.50">
        <route edges="27286724 27286723 27286723-AddedOffRampEdge 27286945 27286944 861058556 27287063 27287065#0 27287065#1-AddedOnRampEdge 27287065#1 66519380 66519374 66519377 66519384 66519384-AddedOffRampEdge"/>
    </vehicle>
    <vehicle id="243" depart="121.50">
        <route edges="27287065#1-AddedOnRampEdge 27287065#1 66519380 66519374 66519377 66519384"/>
    </vehicle>
    <vehicle id="255" depart="127.50">
        <route edges="24794598#1-AddedOnRampEdge 24794598#1 24794598#2-AddedOnRampEdge 24794598#2 968917472-AddedOnRampEdge 968917472 866591865 866591865-AddedOffRampEdge 122900675 734604564 734604563 866532623 866532624 31353386 31353366 226663235 866645922 226663234 25710104"/>
    </vehicle>
    <vehicle id="256" depart="128.00">
        <route edges="859623112 44335127 44335126#0 44335126#1-AddedOnRampEdge 44335126#1 66519378 66519379 66519376 66519375 66519375-AddedOffRampEdge 861071281 27287060 27286947#0 27286947#1 27286946"/>
    </vehicle>
    <vehicle id="261" depart="130.50">
        <route edges="58583367 58583370 58583336 866618593 866618594 31353398 862934679 862934679.189 862934679.930 862934679.1003 734604565 226328501 859731738 226328500 226328500-AddedOffRampEdge 862954171#0 862954171#1-AddedOnRampEdge 862954171#1 866655240 866655240-AddedOffRampEdge 864141294 864141294-AddedOffRampEdge 864141293 30636675 24794667#0 24794667#1 25003395 24794581 24794581-AddedOffRampEdge 859705684"/>
    </vehicle>
    <vehicle id="262" depart="131.00">
        <route edges="58583367 58583370 58583336 866618593 866618594 31353398 862934679 862934679.189 862934679.930 862934679.1003 734604565 226328501 859731738 226328500 226328500-AddedOffRampEdge 862954171#0 862954171#1-AddedOnRampEdge 862954171#1 866655240 866655240-AddedOffRampEdge 864141294 864141294-AddedOffRampEdge 864141293 30636675 24794667#0 24794667#1 25003395 24794581 24794581-AddedOffRampEdge 859705684 25003398 25003399 172076192 172076190 55904299 519777708#0 519777708#1-AddedOnRampEdge 519777708#1 172076417 32233343 122900713 172076622#0 172076622#1-AddedOnRampEdge 172076622#1 27286724 27286723 27286723-AddedOffRampEdge 27286945 27286944 861058556 27287063 27287065#0 27287065#1-AddedOnRampEdge 27287065#1 66519380 66519374 66519377 66519384 66519384-AddedOffRampEdge"/>
    </vehicle>
    <vehicle id="263" depart="131.50">
        <route edges="884743655 27286947#1 27286946 27286722-AddedOnRampEdge 27286722 27286725 24813112 172076623 172076623-AddedOffRampEdge 299078428 32233218 32233202 172777690 122900683 25003400 25003401-AddedOnRampEdge 25003401 25003394 24794617 24794606 24794598#0 24794598#1-AddedOnRampEdge 24794598#1 24794598#2-AddedOnRampEdge 24794598#2 968917472-AddedOnRampEdge 968917472 866591865 866591865-AddedOffRampEdge 122900675 734604564 734604563 866532623 866532624 31353386 31353366 226663235 866645922 226663234 25710104 226666943"/>
    </vehicle>
    <vehicle id="267" depart="133.50">
        <route edges="66519376 66519375 66519375-AddedOffRampEdge 861071281 27287060 27286947#0 27286947#1 27286946 27286722-AddedOnRampEdge 27286722 27286725 24813112 172076623 172076623-AddedOffRampEdge 299078428 32233218 32233202 172777690 122900683 25003400 25003401-AddedOnRampEdge 25003401 25003394 24794617 24794606 24794598#0 24794598#1-AddedOnRampEdge 24794598#1 24794598#2-AddedOnRampEdge 24794598#2 968917472-AddedOnRampEdge 968917472 866591865 866591865-AddedOffRampEdge 122900675 734604564"/>
    </vehicle>
    <vehicle id="271" depart="135.50">
        <route edges="172076623 172076623-AddedOffRampEdge 13255021"/>
    </vehicle>
    <vehicle id="277" depart="138.50">
        <route edges="864141294-AddedOffRampEdge 864141293 30636675 24794667#0 24794667#1 25003395 24794581 24794581-AddedOffRampEdge 859705684 25003398 25003399 172076192 172076190 55904299 519777708#0 519777708#1-AddedOnRampEdge 519777708#1"/>
    </vehicle>
    <vehicle id="278" depart="139.00">
        <route edges="172777690 122900683 25003400 25003401-AddedOnRampEdge 25003401 25003394 24794617 24794606 24794598#0 24794598#1-AddedOnRampEdge 24794598#1 24794598#2-AddedOnRampEdge 24794598#2 968917472-AddedOnRampEdge 968917472"/>
    </vehicle>
    <vehicle id="281" depart="140.50">
        <route edges="405317288 44335126#1-AddedOnRampEdge 44335126#1 66519378 66519379 66519376 66519375 66519375-AddedOffRampEdge 861071281 27287060 27286947#0 27286947#1 27286946 27286722-AddedOnRampEdge"/>
    </vehicle>
    <vehicle id="285" depart="142.50">
        <route edges="66519378 66519379 66519376 66519375 66519375-AddedOffRampEdge 861071281 27287060 27286947#0 27286947#1 27286946 27286722-AddedOnRampEdge 27286722 27286725 24813112 172076623 172076623-AddedOffRampEdge 299078428"/>
    </vehicle>
    <vehicle id="288" depart="144.00">
        <route edges="44335126#1-AddedOnRampEdge 44335126#1 66519378 66519379 66519376 66519375 66519375-AddedOffRampEdge 861071281 27287060 27286947#0 27286947#1 27286946 27286722-AddedOnRampEdge 27286722 27286725 24813112 172076623 172076623-AddedOffRampEdge 299078428 32233218 32233202"/>
    </vehicle>
    <vehicle id="291" depart="145.50">
        <route edges="862954171#1-AddedOnRampEdge 862954171#1 866655240 866655240-AddedOffRampEdge 864141294 864141294-AddedOffRampEdge 864141293 30636675 24794667#0 24794667#1 25003395 24794581 24794581-AddedOffRampEdge 859705684 25003398 25003399 172076192"/>
    </vehicle>
    <vehicle id="294" depart="147.00">
        <route edges="27286947#0 27286947#1 27286946 27286722-AddedOnRampEdge 27286722 27286725 24813112 172076623 172076623-AddedOffRampEdge 13255021"/>
    </vehicle>
    <vehicle id="296" depart="148.00">
        <route edges="24794598#2 968917472-AddedOnRampEdge 968917472 866591865 866591865-AddedOffRampEdge 122900675 734604564 734604563 866532623 866532624 31353386 31353366 226663235 866645922 226663234 25710104 226666943 864558248 864558247 864558247-AddedOffRampEdge 866596939#0 866596939#1-AddedOnRampEdge 866596939#1 860961742"/>
    </vehicle>
    <vehicle id="299" depart="149.50">
        <route edges="122900683 25003400 25003401-AddedOnRampEdge 25003401 25003394 24794617 24794606 24794598#0 24794598#1-AddedOnRampEdge 24794598#1 24794598#2-AddedOnRampEdge 24794598#2 968917472-AddedOnRampEdge 968917472 866591865 866591865-AddedOffRampEdge 122900675 734604564 734604563 866532623 866532624 31353386 31353366 226663235 866645922"/>
    </vehicle>
    <vehicle id="301" depart="150.50">
        <route edges="32233218 32233202 172777690 122900683 25003400 25003401-AddedOnRampEdge 25003401 25003394 24794617 24794606 24794598#0 24794598#1-AddedOnRampEdge 24794598#1 24794598#2-AddedOnRampEdge 24794598#2 968917472-AddedOnRampEdge 968917472 866591865 866591865-AddedOffRampEdge 122900675 734604564 734604563"/>
    </vehicle>
    <vehicle id="303" depart="151.50">
        <route edges="32233218 32233202 172777690 122900683 25003400 25003401-AddedOnRampEdge 25003401 25003394 24794617 24794606 24794598#0 24794598#1-AddedOnRampEdge 24794598#1 24794598#2-AddedOnRampEdge 24794598#2 968917472-AddedOnRampEdge 968917472 866591865 866591865-AddedOffRampEdge 122900675 734604564 734604563 866532623 866532624 31353386 31353366 226663235 866645922 226663234 25710104 226666943 864558248 864558247 864558247-AddedOffRampEdge 866596939#0 866596939#1-AddedOnRampEdge 866596939#1 860961742"/>
    </vehicle>
    <vehicle id="308" depart="154.00">
        <route edges="734604564 734604563 866532623 866532624 31353386 31353366 226663235 866645922 226663234 25710104"/>
    </vehicle>
    <vehicle id="312" depart="156.00">
        <route edges="44335126#1-AddedOnRampEdge 44335126#1 66519378 66519379 66519376 66519375 66519375-AddedOffRampEdge 861071281 27287060 27286947#0 27286947#1 27286946 27286722-AddedOnRampEdge 27286722 27286725 24813112 172076623 172076623-AddedOffRampEdge 299078428 32233218 32233202 172777690 122900683 25003400 25003401-AddedOnRampEdge 25003401 25003394 24794617 24794606 24794598#0 24794598#1-AddedOnRampEdge 24794598#1 24794598#2-AddedOnRampEdge 24794598#2 968917472-AddedOnRampEdge 968917472 866591865 866591865-AddedOffRampEdge 122900675 734604564 734604563"/>
    </vehicle>
    <vehicle id="316" depart="158.00">
        <route edges="25003399 172076192 172076190 55904299 519777708#0 519777708#1-AddedOnRampEdge 519777708#1 172076417 32233343 122900713 172076622#0"/>
    </vehicle>
    <vehicle id="321" depart="160.50">
        <route edges="66519376 66519375 66519375-AddedOffRampEdge 861071281 27287060 27286947#0 27286947#1 27286946 27286722-AddedOnRampEdge 27286722 27286725 24813112 172076623 172076623-AddedOffRampEdge 299078428 32233218 32233202 172777690"/>
    </vehicle>
    <vehicle id="328" depart="164.00">
        <route edges="172076192 172076190 55904299 519777708#0 519777708#1-AddedOnRampEdge 519777708#1 172076417 32233343 122900713 172076622#0 172076622#1-AddedOnRampEdge 172076622#1 27286724 27286723 27286723-AddedOffRampEdge 27286945 27286944 861058556 27287063 27287065#0 27287065#1-AddedOnRampEdge 27287065#1 66519380 66519374 66519377 66519384 66519384-AddedOffRampEdge 862427534 44335129 44335128#0 44335128#1-AddedOnRampEdge 44335128#1 55900239 55900238"/>
    </vehicle>
    <vehicle id="335" depart="167.50">